Circuit: * C:\Users\johan\OneDrive\01_Studium_TIB\02.Semester\04_Elektrotechnik_2\Labor\02_Hochpassverhalten_bei_AC-Kopplung\Draft2.asc

.OP point found by inspection.

Date: Mon Nov 13 17:25:47 2023
Total elapsed time: 0.234 seconds.

tnom = 27
temp = 27
method = modified trap
totiter = 2165
traniter = 2165
tranpoints = 1071
accept = 1058
rejected = 13
matrix size = 4
fillins = 0
solver = Normal
Avg thread counts: 3.7/6.5/6.5/3.7
Matrix Compiler1: 118 bytes object code size  0.3/0.4/[0.3]
Matrix Compiler2: 248 bytes object code size  0.2/0.4/[0.2]

